# created with PyMOL 2.5.5
@<TRIPOS>MOLECULE
PPO
9 8 1                   
SMALL
USER_CHARGES
@<TRIPOS>ATOM
1	 P01	45.941	50.576	50.934	p5	783	PPO	0.000	
2	 P02	43.539	52.117	51.047	p5	783	PPO	0.000	
3	 O01	46.276	49.122	50.346	o	783	PPO	-1.000	
4	 O02	44.361	50.790	50.665	os	783	PPO	0.000	
5	 O03	42.127	51.922	50.620	o	783	PPO	-1.000	
6	 O04	46.265	50.643	52.361	o	783	PPO	-1.000	
7	 O05	46.802	51.529	50.221	o	783	PPO	0.000	
8	 O06	43.526	52.326	52.498	o	783	PPO	-1.000	
9	 O07	44.164	53.275	50.369	o	783	PPO	0.000	
@<TRIPOS>BOND
1 1 3 1
2 1 4 1
3 1 6 1
4 1 7 2
5 2 4 1
6 2 5 1
7 2 8 1
8 2 9 2
@<TRIPOS>SUBSTRUCTURE
1	PPO	1	GROUP	1 ****	PPO
