# created with PyMOL 2.5.5
@<TRIPOS>MOLECULE
vert8
53 54 1                 
SMALL
USER_CHARGES
@<TRIPOS>ATOM
1	 C01	42.944	47.252	46.613	c3	784	VRT	0.000	
2	 C02	41.874	48.219	46.053	c3	784	VRT	0.000	
3	 C03	41.118	48.862	47.205	c2	784	VRT	0.000	
4	 C04	41.649	49.622	48.192	c2	784	VRT	0.000	
5	 C05	40.949	49.704	49.541	c3	784	VRT	0.000	
6	 C06	41.760	49.229	50.779	c3	784	VRT	0.000	
7	 C07	42.600	47.972	50.660	c3	784	VRT	0.000	
8	 C08	42.306	46.695	51.002	c2	784	VRT	1.000	
9	 C09	43.335	45.572	50.857	c3	784	VRT	0.000	
10	 C10	43.319	44.745	49.535	c3	784	VRT	0.000	
11	 C11	43.658	45.614	48.299	c2	784	VRT	0.000	
12	 C12	44.881	45.196	47.443	c2	784	VRT	0.000	
13	 C13	45.276	46.280	46.409	c3	784	VRT	0.000	
14	 C14	44.109	46.960	45.661	c3	784	VRT	0.000	
15	 C15	42.466	45.910	47.309	c3	784	VRT	0.000	
16	 C16	42.278	44.746	46.295	c3	784	VRT	0.000	
17	 C17	41.085	46.008	47.987	c3	784	VRT	0.000	
18	 C18	46.108	44.751	48.229	c3	784	VRT	0.000	
19	 C19	40.979	46.269	51.567	c3	784	VRT	0.000	
20	 C20	42.959	50.356	48.080	c3	784	VRT	0.000	
21	 H04	40.042	48.695	47.240	ha	784	VRT	0.000	
22	 H01	43.423	47.855	47.395	hc	784	VRT	0.000	
23	 H02	41.176	47.676	45.406	hc	784	VRT	0.000	
24	 H03	42.330	49.002	45.437	hc	784	VRT	0.000	
25	 H05	40.636	50.743	49.708	hc	784	VRT	0.000	
26	 H06	40.020	49.116	49.514	hc	784	VRT	0.000	
27	 H07	41.069	49.139	51.629	hc	784	VRT	0.000	
28	 H08	42.445	50.038	51.065	hc	784	VRT	0.000	
29	 H09	43.294	48.184	51.473	hc	784	VRT	0.000	
30	 H10	43.208	44.877	51.696	hc	784	VRT	0.000	
31	 H11	44.342	45.990	50.987	hc	784	VRT	0.000	
32	 H12	42.363	44.228	49.435	hc	784	VRT	0.000	
33	 H13	44.051	43.942	49.654	hc	784	VRT	0.000	
34	 H14	42.845	47.914	49.599	hc	784	VRT	0.000	
35	 H15	45.950	45.841	45.664	hc	784	VRT	0.000	
36	 H16	45.841	47.065	46.927	hc	784	VRT	0.000	
37	 H17	43.782	46.345	44.815	hc	784	VRT	0.000	
38	 H18	44.482	47.894	45.222	hc	784	VRT	0.000	
39	 H19	41.258	44.348	46.348	hc	784	VRT	0.000	
40	 H20	42.462	45.019	45.253	hc	784	VRT	0.000	
41	 H21	42.968	43.923	46.517	hc	784	VRT	0.000	
42	 H22	40.392	46.599	47.380	hc	784	VRT	0.000	
43	 H23	40.600	45.034	48.091	hc	784	VRT	0.000	
44	 H24	41.131	46.454	48.974	hc	784	VRT	0.000	
45	 H25	46.258	45.366	49.123	hc	784	VRT	0.000	
46	 H26	46.029	43.701	48.526	hc	784	VRT	0.000	
47	 H27	47.011	44.821	47.613	hc	784	VRT	0.000	
48	 H28	40.684	45.303	51.142	hc	784	VRT	0.000	
49	 H29	40.991	46.169	52.655	hc	784	VRT     0.000	
50	 H30	40.205	47.003	51.321	hc	784	VRT	0.000	
51	 H31	43.103	50.774	47.080	hc	784	VRT	0.000	
52	 H32	43.040	51.174	48.800	hc	784	VRT	0.000	
53	 H33	43.786	49.669	48.287	hc	784	VRT	0.000	
@<TRIPOS>BOND
1 1 2 1
2 1 14 1
3 1 15 1
4 1 22 1
5 2 3 1
6 2 23 1
7 2 24 1
8 3 4 2
9 3 21 1
10 4 5 1
11 4 20 1
12 5 6 1
13 5 25 1
14 5 26 1
15 6 7 1
16 6 27 1
17 6 28 1
18 7 8 1
19 7 29 1
20 7 34 1
21 8 9 1
22 8 19 1
23 9 10 1
24 9 30 1
25 9 31 1
26 10 11 1
27 10 32 1
28 10 33 1
29 11 12 2
30 11 15 1
31 12 13 1
32 12 18 1
33 13 14 1
34 13 35 1
35 13 36 1
36 14 37 1
37 14 38 1
38 15 16 1
39 15 17 1
40 16 39 1
41 16 40 1
42 16 41 1
43 17 42 1
44 17 43 1
45 17 44 1
46 18 45 1
47 18 46 1
48 18 47 1
49 19 48 1
50 19 49 1
51 19 50 1
52 20 51 1
53 20 52 1
54 20 53 1
@<TRIPOS>SUBSTRUCTURE
1	VRT	1	GROUP	1 ****	VRT
